  9
  199   Energy =      -69.9938657427  kJ/mol
O    1.2361419   1.0137761  -0.0612424
H    0.5104418   0.8944555   0.5514190
H    1.9926927   1.1973129   0.4956931
O   -0.9957202   0.0160415   1.2422556
H   -1.4542703  -0.5669741   1.8472817
H   -0.9377950  -0.4817912   0.4267562
O   -0.2432343  -1.0198566  -1.1953808
H    0.4367536  -0.3759433  -0.9973297
H   -0.5031835  -0.8251492  -2.0957959
