 15
10002   Energy =     -152.1090020006  kJ/mol
O   -0.9567134  -1.6042689   1.3435118
H   -0.6650244  -1.9662810   2.1802297
H   -1.0028400  -0.6600316   1.4935793
O   -0.1145451  -1.9365249  -1.2235263
H   -0.4363045  -2.8013713  -1.4779739
H   -0.4142229  -1.8248534  -0.3213319
O    0.9684803   2.0759222   0.1270584
H    0.9898612   1.5128216  -0.6466939
H    1.8866263   2.2883722   0.2947036
O   -0.9514915   1.0798879   1.7723334
H   -0.2551332   1.4445779   1.2261481
H   -1.6461613   1.7379186   1.7466169
O    1.0592362   0.3981252  -2.0093761
H    0.7701861   0.5044814  -2.9156710
H    0.6941903  -0.4441981  -1.7383318
